# Generated by MiXBLUP: 3.0.1.00138 2024-06-06 12:10:23
# Time and date         : 17:16    13.08. 2024
 
# TITLE Chapter 3.1 Example
Chapter 3.1 Example
# integer                       
 ID Sex
# real                          
 WWG
# TRAITS
           1
# TRAITGRP
 1 - 
# DATASORT
  -  1   
# FIXRAN
    1    1
# MODEL
  1 1 - 2 1
# BLKORD or WITHINBLOCKORDER
  - 1
# RANDOM
  1
# RELATIONSHIPS, pedigree with use of inbreeding coefficients
           1           1  y
 # INBREEDING: columns of ID and inbreeding coefficients
 1 2
 # INBRFILE: name of inbreeding coefficients file
 inbreeding.txt      
# REGRESS
   2 cl cl
# COMBINE
n
# PEDIGREE, RELMET
am        
# DATAFILE data.txt !MISSING 0 !STATS NDHL
data.txt
 # VAR
    2    1 f $
# ALPHANUMERICS COLUMNS
 ID Sex
# ALPHANUMERICS FILE
code.inp            
# Missing
  0.0000000E+00
# SCALE
y
# PEDFILE pedigree.txt !CALCINBR
pedigree.txt
# CVmatrix files
# PARFILE par.txt
covar.txt
# TMPDIR ./temp/
./temp/
# noransol
  y
# SOLUNF
y
# precon
 b b # Default is block diagonal
# parallel
 1  # Default: no parallel computing
# COMMON BLOCKS
           0
